
 ===================================================
  XFOIL Version 6.96
  Copyright (C) 2000   Mark Drela, Harold Youngren

  This software comes with ABSOLUTELY NO WARRANTY,
    subject to the GNU General Public License.

  Caveat computor
 ===================================================

 File  xfoil.def  not found

   QUIT    Exit program

  .OPER    Direct operating point(s)
  .MDES    Complex mapping design routine
  .QDES    Surface speed design routine
  .GDES    Geometry design routine

   SAVE f  Write airfoil to labeled coordinate file
   PSAV f  Write airfoil to plain coordinate file
   ISAV f  Write airfoil to ISES coordinate file
   MSAV f  Write airfoil to MSES coordinate file
   REVE    Reverse written-airfoil node ordering

   LOAD f  Read buffer airfoil from coordinate file
   NACA i  Set NACA 4,5-digit airfoil and buffer airfoil
   INTE    Set buffer airfoil by interpolating two airfoils
   NORM    Buffer airfoil normalization toggle
   XYCM rr Change CM reference location, currently  0.25000 0.00000

   BEND    Display structural properties of current airfoil

   PCOP    Set current-airfoil panel nodes directly from buffer airfoil points
   PANE    Set current-airfoil panel nodes ( 160 ) based on curvature
  .PPAR    Show/change paneling

  .PLOP    Plotting options

   WDEF f  Write  current-settings file
   RDEF f  Reread current-settings file
   NAME s  Specify new airfoil name
   NINC    Increment name version number

   Z       Zoom    | (available in all menus)
   U       Unzoom  | 

 XFOIL   c>   ...............................................

  G raphics-enable flag:        T
  S ize of plot object          10.00"
  A spect ratio of plot object   0.5500
  P age dimensions              11.00 x  8.50"
  M argins from page edges       0.00",  0.00"
  F ont size (relative)          0.0150
  W indow/screen size fraction   0.8000
  B lowup input method:        Cursor    
  O rientation of plot:        Landscape 
  C olor PostScript output?     F

      Option, Value   (or <Return>)    c>   ...............................................

  G raphics-enable flag:        F
  S ize of plot object          10.00"
  A spect ratio of plot object   0.5500
  P age dimensions              11.00 x  8.50"
  M argins from page edges       0.00",  0.00"
  F ont size (relative)          0.0150
  W indow/screen size fraction   0.8000
  B lowup input method:        Cursor    
  O rientation of plot:        Landscape 
  C olor PostScript output?     F

      Option, Value   (or <Return>)    c>  
 XFOIL   c>   
 Labeled airfoil file.  Name:  TestDir/AirfoilMix.dat                          

 Number of input coordinate points: 160
 Counterclockwise ordering
 Max thickness =     0.119397  at x =   0.298
 Max camber    =     0.017117  at x =   0.310

  LE  x,y  =   0.00000   0.00000  |   Chord =   1.00000
  TE  x,y  =   1.00000   0.00000  |

 Current airfoil nodes set from buffer airfoil nodes ( 160 )

 XFOIL   c>  
 Enter airfoil name or <return> for default:  TestDir/AirfoilMix.dat                          

 XFOIL   c>  
    Present paneling parameters...
  N  i   Number of panel nodes       160
  P  r   Panel bunching parameter    1.000
  T  r   TE/LE panel density ratio   0.150
  R  r   Refined area/LE  panel density ratio   0.200
  XT rr  Top    side refined area x/c limits    1.000 1.000
  XB rr  Bottom side refined area x/c limits    1.000 1.000
  Z oom
  U nzoom

Change what ? (<cr> if nothing else)   c>  
Enter number of panel nodes   i>  
Change what ? (<cr> if nothing else)   c>  
Enter panel bunching parameter (0 to ~1)   r>  
Change what ? (<cr> if nothing else)   c>  
Enter TE/LE panel density ratio   r>  
Change what ? (<cr> if nothing else)   c>  
Enter refined-area panel density ratio   r>  
Change what ? (<cr> if nothing else)   c>  
 Sharp trailing edge

 Maximum panel corner angle =  9.587   at  i,x,y  =  84   0.0008  -0.0049

    Present paneling parameters...
  N  i   Number of panel nodes       160
  P  r   Panel bunching parameter    0.800
  T  r   TE/LE panel density ratio   0.800
  R  r   Refined area/LE  panel density ratio   0.100
  XT rr  Top    side refined area x/c limits    1.000 1.000
  XB rr  Bottom side refined area x/c limits    1.000 1.000
  Z oom
  U nzoom

Change what ? (<cr> if nothing else)   c>  
 XFOIL   c>   
 You are working with the buffer airfoil

.GDES   c>  
 Current gap =  0.00000

Enter new gap   r>  
Enter blending distance/c (0..1)   r>   Max thickness =     0.119397  at x =   0.298
 Max camber    =     0.017117  at x =   0.310

.GDES   c>  
 Current airfoil nodes set from buffer airfoil nodes ( 160 )

.GDES   c>  
 XFOIL   c>  
 XFOIL   c>   
 You are working with the buffer airfoil

.GDES   c>   Enabling camber,thickness plotting

 Max thickness =   0.1194  at x =   0.297
 Max camber    =   0.0171  at x =   0.312


Enter new max thickness <ret> to skip   r>  
Enter new max  camber   <ret> to skip   r>   Max thickness =     0.100000  at x =   0.298
 Max camber    =    -0.000010  at x =   0.125

.GDES   c>  
 Max thickness =   0.1000  at x =   0.297
 Max camber    =   0.0000  at x =   0.994


Enter new thickness highpoint x:    r>  
Enter new camber    highpoint x:    r>   Max thickness =     0.099998  at x =   0.298
 Max camber    =     0.000270  at x =   0.001

.GDES   c>  
  i       x        y      angle
   2   0.9977   0.0003    0.039
   3   0.9937   0.0007    0.026
   4   0.9892   0.0013    0.042
   5   0.9837   0.0019    0.050
   6   0.9772   0.0027    0.055
   7   0.9694   0.0036    0.062
   8   0.9598   0.0047    0.084
   9   0.9483   0.0060    0.090
  10   0.9350   0.0075    0.103
  11   0.9203   0.0091    0.104
  12   0.9048   0.0107    0.108
  13   0.8887   0.0124    0.114
  14   0.8724   0.0141    0.106
  15   0.8559   0.0158    0.109
  16   0.8394   0.0175    0.108
  17   0.8228   0.0191    0.105
  18   0.8062   0.0207    0.109
  19   0.7896   0.0222    0.105
  20   0.7730   0.0238    0.105
  21   0.7563   0.0253    0.111
  22   0.7397   0.0267    0.107
  23   0.7230   0.0282    0.109
  24   0.7064   0.0296    0.115
  25   0.6898   0.0310    0.114
  26   0.6731   0.0323    0.118
  27   0.6565   0.0336    0.120
  28   0.6398   0.0349    0.125
  29   0.6232   0.0361    0.131
  30   0.6065   0.0373    0.134
  31   0.5899   0.0385    0.138
  32   0.5733   0.0396    0.147
  33   0.5567   0.0407    0.149
  34   0.5401   0.0417    0.159
  35   0.5235   0.0427    0.168
  36   0.5069   0.0436    0.175
  37   0.4903   0.0445    0.183
  38   0.4737   0.0454    0.192
  39   0.4572   0.0461    0.205
  40   0.4407   0.0468    0.214
  41   0.4242   0.0475    0.224
  42   0.4077   0.0481    0.238
  43   0.3913   0.0486    0.251
  44   0.3749   0.0490    0.266
  45   0.3586   0.0494    0.282
  46   0.3424   0.0497    0.300
  47   0.3262   0.0499    0.318
  48   0.3100   0.0500    0.337
  49   0.2939   0.0500    0.362
  50   0.2778   0.0499    0.383
  51   0.2618   0.0497    0.410
  52   0.2459   0.0494    0.439
  53   0.2300   0.0490    0.471
  54   0.2143   0.0484    0.511
  55   0.1988   0.0477    0.552
  56   0.1835   0.0469    0.600
  57   0.1685   0.0459    0.652
  58   0.1538   0.0448    0.707
  59   0.1394   0.0435    0.775
  60   0.1255   0.0421    0.858
  61   0.1120   0.0405    0.944
  62   0.0990   0.0388    1.045
  63   0.0866   0.0369    1.167
  64   0.0750   0.0349    1.302
  65   0.0642   0.0328    1.447
  66   0.0544   0.0306    1.608
  67   0.0457   0.0284    1.773
  68   0.0381   0.0262    1.950
  69   0.0315   0.0241    2.169
  70   0.0258   0.0220    2.386
  71   0.0209   0.0200    2.663
  72   0.0168   0.0181    3.020
  73   0.0133   0.0162    3.437
  74   0.0103   0.0143    3.937
  75   0.0077   0.0125    4.842
  76   0.0055   0.0106    5.107
  77   0.0038   0.0088    6.314
  78   0.0023   0.0070   -3.618
  79   0.0013   0.0058   25.394
  80   0.0005   0.0033    7.308
  81   0.0001   0.0007    2.750
  82   0.0000  -0.0001   14.291
  83   0.0002  -0.0018    3.592
  84   0.0009  -0.0048   17.195
  85   0.0019  -0.0067   13.201
  86   0.0033  -0.0083    0.100
  87   0.0052  -0.0104    7.238
  88   0.0075  -0.0123    4.942
  89   0.0102  -0.0143    4.175
  90   0.0133  -0.0162    3.496
  91   0.0168  -0.0181    3.014
  92   0.0209  -0.0200    2.625
  93   0.0257  -0.0220    2.344
  94   0.0312  -0.0240    2.142
  95   0.0377  -0.0261    1.956
  96   0.0453  -0.0283    1.820
  97   0.0543  -0.0306    1.696
  98   0.0648  -0.0329    1.565
  99   0.0769  -0.0352    1.433
 100   0.0903  -0.0375    1.287
 101   0.1047  -0.0396    1.144
 102   0.1200  -0.0415    1.018
 103   0.1356  -0.0432    0.897
 104   0.1516  -0.0446    0.793
 105   0.1676  -0.0459    0.710
 106   0.1837  -0.0469    0.637
 107   0.1999  -0.0478    0.575
 108   0.2160  -0.0485    0.525
 109   0.2322  -0.0490    0.479
 110   0.2485  -0.0495    0.447
 111   0.2649  -0.0498    0.415
 112   0.2813  -0.0499    0.388
 113   0.2978  -0.0500    0.366
 114   0.3144  -0.0500    0.339
 115   0.3310  -0.0498    0.321
 116   0.3476  -0.0496    0.302
 117   0.3643  -0.0493    0.283
 118   0.3810  -0.0489    0.266
 119   0.3978  -0.0484    0.251
 120   0.4145  -0.0478    0.236
 121   0.4312  -0.0472    0.223
 122   0.4480  -0.0465    0.213
 123   0.4647  -0.0458    0.203
 124   0.4815  -0.0450    0.189
 125   0.4983  -0.0441    0.182
 126   0.5151  -0.0432    0.173
 127   0.5319  -0.0422    0.167
 128   0.5488  -0.0412    0.155
 129   0.5656  -0.0401    0.151
 130   0.5825  -0.0390    0.144
 131   0.5994  -0.0378    0.137
 132   0.6163  -0.0366    0.134
 133   0.6332  -0.0354    0.130
 134   0.6501  -0.0341    0.123
 135   0.6670  -0.0328    0.121
 136   0.6839  -0.0315    0.116
 137   0.7008  -0.0301    0.117
 138   0.7177  -0.0286    0.113
 139   0.7347  -0.0272    0.108
 140   0.7516  -0.0257    0.112
 141   0.7685  -0.0242    0.109
 142   0.7854  -0.0226    0.106
 143   0.8024  -0.0210    0.111
 144   0.8193  -0.0194    0.107
 145   0.8362  -0.0178    0.109
 146   0.8530  -0.0161    0.112
 147   0.8699  -0.0144    0.108
 148   0.8865  -0.0127    0.116
 149   0.9029  -0.0109    0.111
 150   0.9189  -0.0092    0.105
 151   0.9339  -0.0076    0.106
 152   0.9474  -0.0061    0.092
 153   0.9591  -0.0048    0.085
 154   0.9689  -0.0036    0.063
 155   0.9769  -0.0027    0.056
 156   0.9835  -0.0019    0.050
 157   0.9890  -0.0013    0.042
 158   0.9937  -0.0008    0.026
 159   0.9976  -0.0003    0.039

 Maximum panel corner angle = 25.394   at  i,x,y  =  79   0.0013   0.0058
 
 Enter corner angle criterion for refinement (deg):  12.697
 Enter type of spline parameter (1=uniform, 2=arclength):   1
 Enter refinement x limits:  -0.09999   1.10000
 Number of points added:            8
 Max thickness =     0.099998  at x =   0.298
 Max camber    =    -0.000206  at x =   0.000

 Maximum panel corner angle = 12.089   at  i,x,y  =  80   0.0013   0.0058

.GDES   c>  
 Current airfoil nodes set from buffer airfoil nodes ( 168 )

.GDES   c>  
 XFOIL   c>  
 Sharp trailing edge

 Paneling parameters used...
   Number of panel nodes       160
   Panel bunching parameter    0.800
   TE/LE panel density ratio   0.800
   Refined-area/LE panel density ratio    0.100
   Top    side refined area x/c limits  1.000 1.000
   Bottom side refined area x/c limits  1.000 1.000

 XFOIL   c>  
 Enter airfoil name or <return> for default:  TestDir/AirfoilMix.dat                          

 XFOIL   c>   
 Output file exists.  Overwrite?  Y

 XFOIL   c>  